   968.0000000000      298.7120646165      16.2665716673  
   0.0000000000      298.7120646165      16.2665716673      -3.3067822908      3.9408696750  
   253.0000000000      298.9969939616      15.1091728701      -5.4544565290      14.9859961488  
   384.0000000000      299.1376196794      14.5397366290      -4.3938808597      16.3981866107  
   557.0000000000      300.2263016765      14.3444719716      -3.2150681494      18.2335575445  
   611.1200000000      300.5680508092      14.2796270648      -2.1790575437      19.2147864125  
   862.0000000000      302.1495536786      13.3947267751      4.0208451627      22.8033460705  
   1112.0000000000      303.7268410684      12.5508206081      6.1248036226      22.8580783059  
   1167.0000000000      303.9977130982      12.3468634365      6.1248036226      22.8580783059  
   1472.0000000000      305.5205913658      11.2702903972      8.4456101094      23.2041230692  
   1777.0000000000      307.0422101923      10.2686858288      8.6233198221      23.6923764921  
   1948.6100000000      307.8987131689      9.7340210658      7.5393265027      24.3556287086  
   2081.0000000000      308.2542056442      9.2571840291      6.6573952419      24.8457372890  
   2386.0000000000      309.0756669324      8.2385782262      8.9717012392      24.6495465687  
   2716.6000000000      309.9426423321      7.2371171929      7.1893672362      26.2259409014  
   2740.0000000000      309.0880769563      5.9777721949      7.0555074774      26.3315123789  
   3301.0000000000      313.1100682849      4.1169940804      6.6573952419      24.8457372890  
   3456.6800000000      314.2351314849      3.6983213907      8.7870947182      24.0378610595  
   3856.5200000000      316.1823700610      3.5418366225      13.8420740798      21.1287526848  
   3910.0000000000      316.6114739256      2.5591130657      14.4615255844      20.6531989379  
   4002.5100000000      317.3670162836      1.4183897820      14.7306286518      20.4621340070  
   4178.2600000000      319.1292922068      1.8393430596      15.2366861306      20.0881493512  
   4520.0000000000      319.3396364299      1.7912964758      16.2065400071      19.3142022770  
   5045.4400000000      319.5711127947      1.7190173806      22.0630839078      17.5246346672  
   5423.0000000000      321.6179242805      0.5544635196      26.2813175809      15.1735257800  
   5434.0000000000      321.7484898959      0.5183827632      26.2813175809      15.1735257800  
   5531.9300000000      322.9157146497      0.2796322289      26.1306323394      16.0693861937  
   5739.0000000000      323.7188866926      0.2151813463      25.7016650321      17.9964996000  
   6281.4400000000      325.7847654227      0.1039817035      27.7097584849      17.8577207490  
   6958.0000000000      327.5762240237      0.2685890667      30.2999221678      17.4936682200  
   7038.5200000000      327.7812255856      0.2993727101      30.2999221678      17.4936682200  
   7113.0000000000      327.9736186800      0.3307035046      29.4088790221      16.9792242200  
   7263.0000000000      328.9119060936      0.4850655319      29.8443170505      13.9166335930  
   7357.3300000000      329.5096341573      0.6133293510      29.7999307969      13.7064367604  
   8049.9600000000      332.0853858608      0.2207949514      29.4618769867      12.1794187557  
   8787.0000000000      333.0728485716      0.0798437522      29.0051538365      10.5570126368  
   9183.0000000000      333.4948140700      0.0439767259      31.3056289841      8.3883180048  
   10311.0000000000      335.4278031668      0.0263864151      30.4554115283      11.0848632686  
   10413.0000000000      335.5725184097      0.0251620685      30.4554115283      11.0848632686  
   10616.0000000000      335.7746447837      0.0318318484      30.9436649512      11.2625729813  
   10655.1600000000      335.8019926517      0.0332891840      30.4371981547      10.3142664248  
   10904.9700000000      338.5616681798      0.0119508235      26.6242818857      4.9489396808  
   10921.0000000000      338.6325507157      0.0117890873      26.3446788639      4.6452776818  
   11521.0200000000      341.3120628542      0.0070014882      30.3619599031      8.8957179246  
   11863.0000000000      341.8209963641      0.0134632055      32.3890884507      11.7886641111  
   12022.5200000000      343.0257632931      0.0189798007      33.2739816206      13.0131408528  
   12445.0000000000      345.3138714744      0.0032105978      35.4299273967      16.5212464730  
   12522.1400000000      345.7362007652      0.0022518113      36.2330535065      15.0156315681  
   12749.0000000000      347.0747238390      0.0023372511      38.2624354250      10.2523886726  
   12763.8200000000      347.1666374729      0.0023429254      38.2624354250      10.2523886726  
   13359.0000000000      350.6245765504      0.0025833413      31.4109632608      5.5386003129  
   13633.0000000000      352.1833993259      0.0027021755      24.8457372890      6.6573952419  
   13969.0000000000      354.7609537781      0.0027822539      21.4472517469      10.0010177360  
   14043.9500000000      355.3349379618      0.0027982939      22.3304021979      15.6359159502  
   14129.1500000000      356.4461847024      0.0027435986      23.2821826474      17.2971803448  
   14578.0000000000      370.9461422082      0.0019086888      26.9223838980      26.9223838980  
   14770.7100000000      377.3078473050      0.0016266384      29.9617070660      26.6761521778  
   14868.9400000000      378.4624914196      0.0015979276      31.5230165300      26.4509515439  
   14883.0000000000      378.6379593644      0.0015929986      31.5230165300      26.4509515439  
   15493.0000000000      385.9038953742      0.0014233134      30.7348425950      25.7895950858  
   15494.4600000000      385.9339539908      0.0014237015      30.6898218805      25.7792135136  
   15951.7200000000      400.8739569567      0.0016512798      18.4171630617      20.4041451943  
   16011.9300000000      402.7735866208      0.0017928375      16.9665187452      19.4902494880  
   16073.0000000000      406.6223934724      0.0019459757      15.5451835489      18.5260283420  
   16102.0000000000      407.3825443607      0.0019621979      15.5451835489      18.5260283420  
   16720.9700000000      423.6852234155      0.0023201862      9.2521270034      14.1172118010  
   17017.0000000000      426.7540180444      0.0022901927      6.6851997800      11.5791056777  
   17321.0000000000      429.8699442867      0.0022544978      7.4876523824      6.2828863525  
   17582.2600000000      432.5800492523      0.0022276489      5.7345746811      5.5922303583  
   17626.0000000000      433.8861952004      0.0022515213      5.4565026141      5.4565026141  
   17931.0000000000      443.1600550262      0.0024436812      7.1328003809      4.1181242200  
   18236.0000000000      452.6109751427      0.0026472877      1.9336928146      5.3127773444  
   18283.0000000000      454.0787567331      0.0026817796      -1.2515450062      7.0978644401  
   18541.0000000000      458.0701942597      0.0027964339      -4.1308551518      8.8586474607  
   18845.0000000000      462.8334114636      0.0029382478      -1.0312452252      11.7871868611  
   19150.0000000000      467.6311926035      0.0030875773      -4.2594014758      15.8963027175  
   19419.3500000000      471.9056763341      0.0032255110      -0.9096768301      13.2414449409  
   19760.0000000000      485.9829665006      0.0035393567      1.6088740586      9.1243781988  
   20057.4100000000      498.5354403099      0.0038419787      -2.6375041160      6.4469187975  
   20363.0000000000      504.5904487977      0.0044897831      -3.7884566099      2.6527058764  
   20369.0000000000      504.7346675983      0.0044942774      -2.5284471256      1.7704377373  
   20979.0000000000      519.2041985790      0.0047866859      -5.1240281891      2.3893735852  
   21284.0000000000      526.5713227923      0.0049350571      -4.7289689322      4.7289689322  
   21589.0000000000      534.0715406260      0.0050971262      -7.1799342576      0.6281628524  
   22198.0000000000      549.3193680990      0.0054168592      -14.1805300269      2.5004100445  
   22277.7200000000      551.3601474460      0.0054662441      -13.8754411538      2.8886224973  
   23087.2600000000      583.9640154571      0.0082408547      -10.3670509187      5.8510722252  
   23113.0000000000      584.6329263889      0.0082739509      -10.2469961750      5.9161060000  
   23603.0000000000      597.4687304500      0.0089276024      -9.4413801698      2.5298101919  
   24027.0000000000      605.6724305993      0.0092251079      -10.1518038428      3.6949544229  
   24046.1400000000      606.0273694308      0.0092352153      -10.0936143986      3.8221140060  
   24941.0000000000      637.8907421758      0.0125767861      -5.9044098540      8.4323711640  
   25551.0000000000      660.5379158734      0.0155132400      -3.9681387489      4.7290436100  
   26161.0000000000      683.9426707879      0.0191129412      -4.5545896728      0.8030970454  
   26233.0000000000      686.7251210996      0.0195885862      -6.4598916951      -1.7309227629  
   26465.0000000000      695.4372555114      0.0214961904      -7.4645760971      -3.4807889990  
   27075.0000000000      718.8678401677      0.0274364345      -11.3229124400      -0.0000000000  
   27685.0000000000      743.0491269428      0.0348988623      -6.2844499979      2.2873527380  
   28138.9000000000      761.4665034452      0.0417369475      -5.8846119824      -2.2695028830  
   28294.0000000000      765.9016645504      0.0434839650      -5.0568942513      -3.5408754747  
   28696.4300000000      777.7802931350      0.0484429450      -5.4478514198      0.6718077235  
   29209.0000000000      808.1524569976      0.0688272119      -2.3124257800      4.0052389397  
   29419.1800000000      820.8338115304      0.0793762637      -1.3139093414      3.6878492060  
   29513.0000000000      823.3027887821      0.0788342751      -0.9307038548      3.4734340730  
   30123.0000000000      839.4153886044      0.0752809044      -4.9691474578      1.3314790484  
   30421.9100000000      847.3715421169      0.0735106421      -2.4544691176      5.6475878250  
   30733.0000000000      867.0333727646      0.0997294379      3.6036802200      6.2417572353  
   30883.0000000000      876.5754230008      0.1152547232      4.3652020913      4.3652020913  
   30952.3300000000      882.0848869623      0.1128198223      4.7015278873      4.1187763073  
   31342.0000000000      896.7101428579      0.1304764790      6.2844499979      2.2873527380  
   31647.0000000000      908.5254578431      0.1463578691      2.4796045814      0.6644080451  
   31766.5700000000      913.0380566495      0.1530671574      2.4796045814      0.6644080451  
